This is mine.
NEW line.
Shiraz Edited
Not pushed yet
Murad Commit.
Test NEW

Usama Test
zzzzzz
Usama test 2
Latesst change dont change pls
bbbbb
qqqqqq

15th Line
trrtsdf
fsdfdf
Shiraz's Cmment
Take my comment
new line