This is mine.
NEW line.
Shiraz Edited
Not pushed yet
Murad Commit.
Test NEW

Usama Test
zzzzzz
Usama test 2
Latesst change dont change pls
bbbbb
qqqqqq

15th Line
Firans Changes in Firnas1 branch
Firnas changes in Firnss3 branch before merge